<?xml version="1.0" encoding="UTF-8"?>

<!-- generated on 2022-07-17 21:22:55 by Eclipse SUMO netedit Version 1.13.0
<configuration xmlns:xsi="http://www.w3.org/2001/XMLSchema-instance" xsi:noNamespaceSchemaLocation="http://sumo.dlr.de/xsd/netconvertConfiguration.xsd">

    <input>
        <sumo-net-file value="/mnt/hgfs/sumo/inter1/inter1.net.xml"/>
    </input>

    <output>
        <output-file value="/mnt/hgfs/sumo/inter1/inter1.net.xml"/>
    </output>

    <processing>
        <geometry.min-radius.fix.railways value="false"/>
        <geometry.max-grade.fix value="false"/>
        <offset.disable-normalization value="true"/>
        <lefthand value="false"/>
    </processing>

    <junctions>
        <no-turnarounds value="true"/>
        <junctions.corner-detail value="5"/>
        <junctions.limit-turn-speed value="5.5"/>
        <rectangular-lane-cut value="false"/>
    </junctions>

    <pedestrian>
        <walkingareas value="false"/>
    </pedestrian>

    <report>
        <aggregate-warnings value="5"/>
    </report>

</configuration>
-->

<net version="1.9" junctionCornerDetail="5" limitTurnSpeed="5.50" xmlns:xsi="http://www.w3.org/2001/XMLSchema-instance" xsi:noNamespaceSchemaLocation="http://sumo.dlr.de/xsd/net_file.xsd">

    <location netOffset="0.00,0.00" convBoundary="-500.00,-500.00,500.00,500.00" origBoundary="-10000000000.00,-10000000000.00,10000000000.00,10000000000.00" projParameter="!"/>

    <edge id=":0_0" function="internal">
        <lane id=":0_0_0" index="0" speed="6.51" length="9.03" shape="-8.00,13.60 -8.35,11.15 -9.40,9.40 -11.15,8.35 -13.60,8.00"/>
    </edge>
    <edge id=":0_1" function="internal">
        <lane id=":0_1_0" index="0" speed="13.89" length="27.20" shape="-8.00,13.60 -8.00,-13.60"/>
        <lane id=":0_1_1" index="1" speed="13.89" length="27.20" shape="-4.80,13.60 -4.80,-13.60"/>
        <lane id=":0_1_2" index="2" speed="13.89" length="27.20" shape="-1.60,13.60 -1.60,-13.60"/>
    </edge>
    <edge id=":0_4" function="internal">
        <lane id=":0_4_0" index="0" speed="10.36" length="5.01" shape="-1.60,13.60 -0.89,8.64"/>
    </edge>
    <edge id=":0_20" function="internal">
        <lane id=":0_20_0" index="0" speed="10.36" length="19.50" shape="-0.89,8.64 -0.65,6.95 2.20,2.20 6.95,-0.65 13.60,-1.60"/>
    </edge>
    <edge id=":0_5" function="internal">
        <lane id=":0_5_0" index="0" speed="6.51" length="9.03" shape="13.60,8.00 11.15,8.35 9.40,9.40 8.35,11.15 8.00,13.60"/>
    </edge>
    <edge id=":0_6" function="internal">
        <lane id=":0_6_0" index="0" speed="13.89" length="27.20" shape="13.60,8.00 -13.60,8.00"/>
        <lane id=":0_6_1" index="1" speed="13.89" length="27.20" shape="13.60,4.80 -13.60,4.80"/>
        <lane id=":0_6_2" index="2" speed="13.89" length="27.20" shape="13.60,1.60 -13.60,1.60"/>
    </edge>
    <edge id=":0_9" function="internal">
        <lane id=":0_9_0" index="0" speed="10.36" length="5.01" shape="13.60,1.60 8.64,0.89"/>
    </edge>
    <edge id=":0_21" function="internal">
        <lane id=":0_21_0" index="0" speed="10.36" length="19.50" shape="8.64,0.89 6.95,0.65 2.20,-2.20 -0.65,-6.95 -1.60,-13.60"/>
    </edge>
    <edge id=":0_10" function="internal">
        <lane id=":0_10_0" index="0" speed="6.51" length="9.03" shape="8.00,-13.60 8.35,-11.15 9.40,-9.40 11.15,-8.35 13.60,-8.00"/>
    </edge>
    <edge id=":0_11" function="internal">
        <lane id=":0_11_0" index="0" speed="13.89" length="27.20" shape="8.00,-13.60 8.00,13.60"/>
        <lane id=":0_11_1" index="1" speed="13.89" length="27.20" shape="4.80,-13.60 4.80,13.60"/>
        <lane id=":0_11_2" index="2" speed="13.89" length="27.20" shape="1.60,-13.60 1.60,13.60"/>
    </edge>
    <edge id=":0_14" function="internal">
        <lane id=":0_14_0" index="0" speed="10.36" length="5.01" shape="1.60,-13.60 0.89,-8.64"/>
    </edge>
    <edge id=":0_22" function="internal">
        <lane id=":0_22_0" index="0" speed="10.36" length="19.50" shape="0.89,-8.64 0.65,-6.95 -2.20,-2.20 -6.95,0.65 -13.60,1.60"/>
    </edge>
    <edge id=":0_15" function="internal">
        <lane id=":0_15_0" index="0" speed="6.51" length="9.03" shape="-13.60,-8.00 -11.15,-8.35 -9.40,-9.40 -8.35,-11.15 -8.00,-13.60"/>
    </edge>
    <edge id=":0_16" function="internal">
        <lane id=":0_16_0" index="0" speed="13.89" length="27.20" shape="-13.60,-8.00 13.60,-8.00"/>
        <lane id=":0_16_1" index="1" speed="13.89" length="27.20" shape="-13.60,-4.80 13.60,-4.80"/>
        <lane id=":0_16_2" index="2" speed="13.89" length="27.20" shape="-13.60,-1.60 13.60,-1.60"/>
    </edge>
    <edge id=":0_19" function="internal">
        <lane id=":0_19_0" index="0" speed="10.36" length="5.01" shape="-13.60,-1.60 -8.64,-0.89"/>
    </edge>
    <edge id=":0_23" function="internal">
        <lane id=":0_23_0" index="0" speed="10.36" length="19.50" shape="-8.64,-0.89 -6.95,-0.65 -2.20,2.20 0.65,6.95 1.60,13.60"/>
    </edge>

    <edge id="0to1" from="0" to="1" priority="-1">
        <lane id="0to1_0" index="0" speed="13.89" length="486.40" shape="-13.60,8.00 -500.00,8.00"/>
        <lane id="0to1_1" index="1" speed="13.89" length="486.40" shape="-13.60,4.80 -500.00,4.80"/>
        <lane id="0to1_2" index="2" speed="13.89" length="486.40" shape="-13.60,1.60 -500.00,1.60"/>
    </edge>
    <edge id="0to2" from="0" to="2" priority="-1">
        <lane id="0to2_0" index="0" speed="13.89" length="486.40" shape="8.00,13.60 8.00,500.00"/>
        <lane id="0to2_1" index="1" speed="13.89" length="486.40" shape="4.80,13.60 4.80,500.00"/>
        <lane id="0to2_2" index="2" speed="13.89" length="486.40" shape="1.60,13.60 1.60,500.00"/>
    </edge>
    <edge id="0to3" from="0" to="3" priority="-1">
        <lane id="0to3_0" index="0" speed="13.89" length="486.40" shape="13.60,-8.00 500.00,-8.00"/>
        <lane id="0to3_1" index="1" speed="13.89" length="486.40" shape="13.60,-4.80 500.00,-4.80"/>
        <lane id="0to3_2" index="2" speed="13.89" length="486.40" shape="13.60,-1.60 500.00,-1.60"/>
    </edge>
    <edge id="0to4" from="0" to="4" priority="-1">
        <lane id="0to4_0" index="0" speed="13.89" length="486.40" shape="-8.00,-13.60 -8.00,-500.00"/>
        <lane id="0to4_1" index="1" speed="13.89" length="486.40" shape="-4.80,-13.60 -4.80,-500.00"/>
        <lane id="0to4_2" index="2" speed="13.89" length="486.40" shape="-1.60,-13.60 -1.60,-500.00"/>
    </edge>
    <edge id="1to0" from="1" to="0" priority="-1">
        <lane id="1to0_0" index="0" speed="13.89" length="486.40" shape="-500.00,-8.00 -13.60,-8.00"/>
        <lane id="1to0_1" index="1" speed="13.89" length="486.40" shape="-500.00,-4.80 -13.60,-4.80"/>
        <lane id="1to0_2" index="2" speed="13.89" length="486.40" shape="-500.00,-1.60 -13.60,-1.60"/>
    </edge>
    <edge id="2to0" from="2" to="0" priority="-1">
        <lane id="2to0_0" index="0" speed="13.89" length="486.40" shape="-8.00,500.00 -8.00,13.60"/>
        <lane id="2to0_1" index="1" speed="13.89" length="486.40" shape="-4.80,500.00 -4.80,13.60"/>
        <lane id="2to0_2" index="2" speed="13.89" length="486.40" shape="-1.60,500.00 -1.60,13.60"/>
    </edge>
    <edge id="3to0" from="3" to="0" priority="-1">
        <lane id="3to0_0" index="0" speed="13.89" length="486.40" shape="500.00,8.00 13.60,8.00"/>
        <lane id="3to0_1" index="1" speed="13.89" length="486.40" shape="500.00,4.80 13.60,4.80"/>
        <lane id="3to0_2" index="2" speed="13.89" length="486.40" shape="500.00,1.60 13.60,1.60"/>
    </edge>
    <edge id="4to0" from="4" to="0" priority="-1">
        <lane id="4to0_0" index="0" speed="13.89" length="486.40" shape="8.00,-500.00 8.00,-13.60"/>
        <lane id="4to0_1" index="1" speed="13.89" length="486.40" shape="4.80,-500.00 4.80,-13.60"/>
        <lane id="4to0_2" index="2" speed="13.89" length="486.40" shape="1.60,-500.00 1.60,-13.60"/>
    </edge>

    <tlLogic id="0" type="static" programID="0" offset="0">
        <phase duration="42" state="GGGGgrrrrrGGGGgrrrrr"/>
        <phase duration="3"  state="yyyyyrrrrryyyyyrrrrr"/>
        <phase duration="42" state="rrrrrGGGGgrrrrrGGGGg"/>
        <phase duration="3"  state="rrrrryyyyyrrrrryyyyy"/>
    </tlLogic>

    <junction id="0" type="traffic_light" x="0.00" y="0.00" incLanes="2to0_0 2to0_1 2to0_2 3to0_0 3to0_1 3to0_2 4to0_0 4to0_1 4to0_2 1to0_0 1to0_1 1to0_2" intLanes=":0_0_0 :0_1_0 :0_1_1 :0_1_2 :0_20_0 :0_5_0 :0_6_0 :0_6_1 :0_6_2 :0_21_0 :0_10_0 :0_11_0 :0_11_1 :0_11_2 :0_22_0 :0_15_0 :0_16_0 :0_16_1 :0_16_2 :0_23_0" shape="-9.60,13.60 9.60,13.60 10.04,11.38 10.60,10.60 11.38,10.04 12.38,9.71 13.60,9.60 13.60,-9.60 11.38,-10.04 10.60,-10.60 10.04,-11.38 9.71,-12.38 9.60,-13.60 -9.60,-13.60 -10.04,-11.38 -10.60,-10.60 -11.38,-10.04 -12.38,-9.71 -13.60,-9.60 -13.60,9.60 -11.38,10.04 -10.60,10.60 -10.04,11.38 -9.71,12.38">
        <request index="0"  response="00000000000000000000" foes="00000000000111000000" cont="0"/>
        <request index="1"  response="10000000001000000000" foes="11111100001111000000" cont="0"/>
        <request index="2"  response="10000000001000000000" foes="11111100001111000000" cont="0"/>
        <request index="3"  response="10000000001000000000" foes="11111100001111000000" cont="0"/>
        <request index="4"  response="10000011101000000000" foes="11110011101111000000" cont="1"/>
        <request index="5"  response="00000011100000000000" foes="00000011100000000000" cont="0"/>
        <request index="6"  response="00000111100000011111" foes="10000111100000011111" cont="0"/>
        <request index="7"  response="00000111100000011111" foes="10000111100000011111" cont="0"/>
        <request index="8"  response="00000111100000011111" foes="10000111100000011111" cont="0"/>
        <request index="9"  response="01110111100000011110" foes="01110111100000011110" cont="1"/>
        <request index="10" response="00000000000000000000" foes="01110000000000000000" cont="0"/>
        <request index="11" response="10000000001000000000" foes="11110000001111110000" cont="0"/>
        <request index="12" response="10000000001000000000" foes="11110000001111110000" cont="0"/>
        <request index="13" response="10000000001000000000" foes="11110000001111110000" cont="0"/>
        <request index="14" response="10000000001000001110" foes="11110000001111001110" cont="1"/>
        <request index="15" response="00000000000000001110" foes="00000000000000001110" cont="0"/>
        <request index="16" response="00000111110000011110" foes="00000111111000011110" cont="0"/>
        <request index="17" response="00000111110000011110" foes="00000111111000011110" cont="0"/>
        <request index="18" response="00000111110000011110" foes="00000111111000011110" cont="0"/>
        <request index="19" response="00000111100111011110" foes="00000111100111011110" cont="1"/>
    </junction>
    <junction id="1" type="dead_end" x="-500.00" y="0.00" incLanes="0to1_0 0to1_1 0to1_2" intLanes="" shape="-500.00,0.00 -500.00,9.60 -500.00,0.00"/>
    <junction id="2" type="dead_end" x="0.00" y="500.00" incLanes="0to2_0 0to2_1 0to2_2" intLanes="" shape="0.00,500.00 9.60,500.00 0.00,500.00"/>
    <junction id="3" type="dead_end" x="500.00" y="0.00" incLanes="0to3_0 0to3_1 0to3_2" intLanes="" shape="500.00,0.00 500.00,-9.60 500.00,0.00"/>
    <junction id="4" type="dead_end" x="0.00" y="-500.00" incLanes="0to4_0 0to4_1 0to4_2" intLanes="" shape="0.00,-500.00 -9.60,-500.00 0.00,-500.00"/>

    <junction id=":0_20_0" type="internal" x="-0.89" y="8.64" incLanes=":0_4_0 4to0_0 4to0_1 4to0_2" intLanes=":0_6_0 :0_6_1 :0_6_2 :0_9_0 :0_10_0 :0_11_0 :0_11_1 :0_11_2 :0_16_0 :0_16_1 :0_16_2 :0_19_0"/>
    <junction id=":0_21_0" type="internal" x="8.64" y="0.89" incLanes=":0_9_0 1to0_0 1to0_1 1to0_2" intLanes=":0_1_0 :0_1_1 :0_1_2 :0_4_0 :0_11_0 :0_11_1 :0_11_2 :0_14_0 :0_15_0 :0_16_0 :0_16_1 :0_16_2"/>
    <junction id=":0_22_0" type="internal" x="0.89" y="-8.64" incLanes=":0_14_0 2to0_0 2to0_1 2to0_2" intLanes=":0_0_0 :0_1_0 :0_1_1 :0_1_2 :0_6_0 :0_6_1 :0_6_2 :0_9_0 :0_16_0 :0_16_1 :0_16_2 :0_19_0"/>
    <junction id=":0_23_0" type="internal" x="-8.64" y="-0.89" incLanes=":0_19_0 3to0_0 3to0_1 3to0_2" intLanes=":0_1_0 :0_1_1 :0_1_2 :0_4_0 :0_5_0 :0_6_0 :0_6_1 :0_6_2 :0_11_0 :0_11_1 :0_11_2 :0_14_0"/>

    <connection from="1to0" to="0to4" fromLane="0" toLane="0" via=":0_15_0" tl="0" linkIndex="15" dir="r" state="o"/>
    <connection from="1to0" to="0to3" fromLane="0" toLane="0" via=":0_16_0" tl="0" linkIndex="16" dir="s" state="o"/>
    <connection from="1to0" to="0to3" fromLane="1" toLane="1" via=":0_16_1" tl="0" linkIndex="17" dir="s" state="o"/>
    <connection from="1to0" to="0to3" fromLane="2" toLane="2" via=":0_16_2" tl="0" linkIndex="18" dir="s" state="o"/>
    <connection from="1to0" to="0to2" fromLane="2" toLane="2" via=":0_19_0" tl="0" linkIndex="19" dir="l" state="o"/>
    <connection from="2to0" to="0to1" fromLane="0" toLane="0" via=":0_0_0" tl="0" linkIndex="0" dir="r" state="O"/>
    <connection from="2to0" to="0to4" fromLane="0" toLane="0" via=":0_1_0" tl="0" linkIndex="1" dir="s" state="O"/>
    <connection from="2to0" to="0to4" fromLane="1" toLane="1" via=":0_1_1" tl="0" linkIndex="2" dir="s" state="O"/>
    <connection from="2to0" to="0to4" fromLane="2" toLane="2" via=":0_1_2" tl="0" linkIndex="3" dir="s" state="O"/>
    <connection from="2to0" to="0to3" fromLane="2" toLane="2" via=":0_4_0" tl="0" linkIndex="4" dir="l" state="o"/>
    <connection from="3to0" to="0to2" fromLane="0" toLane="0" via=":0_5_0" tl="0" linkIndex="5" dir="r" state="o"/>
    <connection from="3to0" to="0to1" fromLane="0" toLane="0" via=":0_6_0" tl="0" linkIndex="6" dir="s" state="o"/>
    <connection from="3to0" to="0to1" fromLane="1" toLane="1" via=":0_6_1" tl="0" linkIndex="7" dir="s" state="o"/>
    <connection from="3to0" to="0to1" fromLane="2" toLane="2" via=":0_6_2" tl="0" linkIndex="8" dir="s" state="o"/>
    <connection from="3to0" to="0to4" fromLane="2" toLane="2" via=":0_9_0" tl="0" linkIndex="9" dir="l" state="o"/>
    <connection from="4to0" to="0to3" fromLane="0" toLane="0" via=":0_10_0" tl="0" linkIndex="10" dir="r" state="O"/>
    <connection from="4to0" to="0to2" fromLane="0" toLane="0" via=":0_11_0" tl="0" linkIndex="11" dir="s" state="O"/>
    <connection from="4to0" to="0to2" fromLane="1" toLane="1" via=":0_11_1" tl="0" linkIndex="12" dir="s" state="O"/>
    <connection from="4to0" to="0to2" fromLane="2" toLane="2" via=":0_11_2" tl="0" linkIndex="13" dir="s" state="O"/>
    <connection from="4to0" to="0to1" fromLane="2" toLane="2" via=":0_14_0" tl="0" linkIndex="14" dir="l" state="o"/>

    <connection from=":0_0" to="0to1" fromLane="0" toLane="0" dir="r" state="M"/>
    <connection from=":0_1" to="0to4" fromLane="0" toLane="0" dir="s" state="M"/>
    <connection from=":0_1" to="0to4" fromLane="1" toLane="1" dir="s" state="M"/>
    <connection from=":0_1" to="0to4" fromLane="2" toLane="2" dir="s" state="M"/>
    <connection from=":0_4" to="0to3" fromLane="0" toLane="2" via=":0_20_0" dir="l" state="m"/>
    <connection from=":0_20" to="0to3" fromLane="0" toLane="2" dir="l" state="M"/>
    <connection from=":0_5" to="0to2" fromLane="0" toLane="0" dir="r" state="M"/>
    <connection from=":0_6" to="0to1" fromLane="0" toLane="0" dir="s" state="M"/>
    <connection from=":0_6" to="0to1" fromLane="1" toLane="1" dir="s" state="M"/>
    <connection from=":0_6" to="0to1" fromLane="2" toLane="2" dir="s" state="M"/>
    <connection from=":0_9" to="0to4" fromLane="0" toLane="2" via=":0_21_0" dir="l" state="m"/>
    <connection from=":0_21" to="0to4" fromLane="0" toLane="2" dir="l" state="M"/>
    <connection from=":0_10" to="0to3" fromLane="0" toLane="0" dir="r" state="M"/>
    <connection from=":0_11" to="0to2" fromLane="0" toLane="0" dir="s" state="M"/>
    <connection from=":0_11" to="0to2" fromLane="1" toLane="1" dir="s" state="M"/>
    <connection from=":0_11" to="0to2" fromLane="2" toLane="2" dir="s" state="M"/>
    <connection from=":0_14" to="0to1" fromLane="0" toLane="2" via=":0_22_0" dir="l" state="m"/>
    <connection from=":0_22" to="0to1" fromLane="0" toLane="2" dir="l" state="M"/>
    <connection from=":0_15" to="0to4" fromLane="0" toLane="0" dir="r" state="M"/>
    <connection from=":0_16" to="0to3" fromLane="0" toLane="0" dir="s" state="M"/>
    <connection from=":0_16" to="0to3" fromLane="1" toLane="1" dir="s" state="M"/>
    <connection from=":0_16" to="0to3" fromLane="2" toLane="2" dir="s" state="M"/>
    <connection from=":0_19" to="0to2" fromLane="0" toLane="2" via=":0_23_0" dir="l" state="m"/>
    <connection from=":0_23" to="0to2" fromLane="0" toLane="2" dir="l" state="M"/>

</net>
