<?xml version="1.0" encoding="UTF-8"?>

<!-- generated on 2022-08-07 13:53:18 by Eclipse SUMO netedit Version 1.13.0
<configuration xmlns:xsi="http://www.w3.org/2001/XMLSchema-instance" xsi:noNamespaceSchemaLocation="http://sumo.dlr.de/xsd/netconvertConfiguration.xsd">

    <input>
        <sumo-net-file value="/home/kng7/workspace/ms-van3t/ns-3.33/scratch/sumo_inter/inter.net.xml"/>
    </input>

    <output>
        <output-file value="/home/kng7/workspace/ms-van3t/ns-3.33/scratch/sumo_inter/inter.net.xml"/>
    </output>

    <processing>
        <geometry.min-radius.fix.railways value="false"/>
        <geometry.max-grade.fix value="false"/>
        <offset.disable-normalization value="true"/>
        <lefthand value="false"/>
    </processing>

    <junctions>
        <no-turnarounds value="true"/>
        <junctions.corner-detail value="5"/>
        <junctions.limit-turn-speed value="5.5"/>
        <rectangular-lane-cut value="false"/>
    </junctions>

    <pedestrian>
        <walkingareas value="false"/>
    </pedestrian>

    <report>
        <aggregate-warnings value="5"/>
    </report>

</configuration>
-->

<net version="1.9" junctionCornerDetail="5" limitTurnSpeed="5.50" xmlns:xsi="http://www.w3.org/2001/XMLSchema-instance" xsi:noNamespaceSchemaLocation="http://sumo.dlr.de/xsd/net_file.xsd">

    <location netOffset="0.00,0.00" convBoundary="-500.00,-500.00,500.00,500.00" origBoundary="-10000000000.00,-10000000000.00,10000000000.00,10000000000.00" projParameter="!"/>

    <edge id=":0_0" function="internal">
        <lane id=":0_0_0" index="0" speed="6.51" length="9.03" shape="-4.80,10.40 -5.15,7.95 -6.20,6.20 -7.95,5.15 -10.40,4.80"/>
    </edge>
    <edge id=":0_1" function="internal">
        <lane id=":0_1_0" index="0" speed="13.89" length="20.80" shape="-4.80,10.40 -4.80,-10.40"/>
        <lane id=":0_1_1" index="1" speed="13.89" length="20.80" shape="-1.60,10.40 -1.60,-10.40"/>
    </edge>
    <edge id=":0_3" function="internal">
        <lane id=":0_3_0" index="0" speed="9.26" length="5.01" shape="-1.60,10.40 -0.89,5.44"/>
    </edge>
    <edge id=":0_16" function="internal">
        <lane id=":0_16_0" index="0" speed="9.26" length="14.34" shape="-0.89,5.44 -0.85,5.15 1.40,1.40 5.15,-0.85 10.40,-1.60"/>
    </edge>
    <edge id=":0_4" function="internal">
        <lane id=":0_4_0" index="0" speed="6.51" length="9.03" shape="10.40,4.80 7.95,5.15 6.20,6.20 5.15,7.95 4.80,10.40"/>
    </edge>
    <edge id=":0_5" function="internal">
        <lane id=":0_5_0" index="0" speed="13.89" length="20.80" shape="10.40,4.80 -10.40,4.80"/>
        <lane id=":0_5_1" index="1" speed="13.89" length="20.80" shape="10.40,1.60 -10.40,1.60"/>
    </edge>
    <edge id=":0_7" function="internal">
        <lane id=":0_7_0" index="0" speed="9.26" length="5.01" shape="10.40,1.60 5.44,0.89"/>
    </edge>
    <edge id=":0_17" function="internal">
        <lane id=":0_17_0" index="0" speed="9.26" length="14.34" shape="5.44,0.89 5.15,0.85 1.40,-1.40 -0.85,-5.15 -1.60,-10.40"/>
    </edge>
    <edge id=":0_8" function="internal">
        <lane id=":0_8_0" index="0" speed="6.51" length="9.03" shape="4.80,-10.40 5.15,-7.95 6.20,-6.20 7.95,-5.15 10.40,-4.80"/>
    </edge>
    <edge id=":0_9" function="internal">
        <lane id=":0_9_0" index="0" speed="13.89" length="20.80" shape="4.80,-10.40 4.80,10.40"/>
        <lane id=":0_9_1" index="1" speed="13.89" length="20.80" shape="1.60,-10.40 1.60,10.40"/>
    </edge>
    <edge id=":0_11" function="internal">
        <lane id=":0_11_0" index="0" speed="9.26" length="5.01" shape="1.60,-10.40 0.89,-5.44"/>
    </edge>
    <edge id=":0_18" function="internal">
        <lane id=":0_18_0" index="0" speed="9.26" length="14.34" shape="0.89,-5.44 0.85,-5.15 -1.40,-1.40 -5.15,0.85 -10.40,1.60"/>
    </edge>
    <edge id=":0_12" function="internal">
        <lane id=":0_12_0" index="0" speed="6.51" length="9.03" shape="-10.40,-4.80 -7.95,-5.15 -6.20,-6.20 -5.15,-7.95 -4.80,-10.40"/>
    </edge>
    <edge id=":0_13" function="internal">
        <lane id=":0_13_0" index="0" speed="13.89" length="20.80" shape="-10.40,-4.80 10.40,-4.80"/>
        <lane id=":0_13_1" index="1" speed="13.89" length="20.80" shape="-10.40,-1.60 10.40,-1.60"/>
    </edge>
    <edge id=":0_15" function="internal">
        <lane id=":0_15_0" index="0" speed="9.26" length="5.01" shape="-10.40,-1.60 -5.44,-0.89"/>
    </edge>
    <edge id=":0_19" function="internal">
        <lane id=":0_19_0" index="0" speed="9.26" length="14.34" shape="-5.44,-0.89 -5.15,-0.85 -1.40,1.40 0.85,5.15 1.60,10.40"/>
    </edge>

    <edge id="0to1" from="0" to="1" priority="-1">
        <lane id="0to1_0" index="0" speed="13.89" length="489.60" shape="-10.40,4.80 -500.00,4.80"/>
        <lane id="0to1_1" index="1" speed="13.89" length="489.60" shape="-10.40,1.60 -500.00,1.60"/>
    </edge>
    <edge id="0to2" from="0" to="2" priority="-1">
        <lane id="0to2_0" index="0" speed="13.89" length="489.60" shape="4.80,10.40 4.80,500.00"/>
        <lane id="0to2_1" index="1" speed="13.89" length="489.60" shape="1.60,10.40 1.60,500.00"/>
    </edge>
    <edge id="0to3" from="0" to="3" priority="-1">
        <lane id="0to3_0" index="0" speed="13.89" length="489.60" shape="10.40,-4.80 500.00,-4.80"/>
        <lane id="0to3_1" index="1" speed="13.89" length="489.60" shape="10.40,-1.60 500.00,-1.60"/>
    </edge>
    <edge id="0to4" from="0" to="4" priority="-1">
        <lane id="0to4_0" index="0" speed="13.89" length="489.60" shape="-4.80,-10.40 -4.80,-500.00"/>
        <lane id="0to4_1" index="1" speed="13.89" length="489.60" shape="-1.60,-10.40 -1.60,-500.00"/>
    </edge>
    <edge id="1to0" from="1" to="0" priority="-1">
        <lane id="1to0_0" index="0" speed="13.89" length="489.60" shape="-500.00,-4.80 -10.40,-4.80"/>
        <lane id="1to0_1" index="1" speed="13.89" length="489.60" shape="-500.00,-1.60 -10.40,-1.60"/>
    </edge>
    <edge id="2to0" from="2" to="0" priority="-1">
        <lane id="2to0_0" index="0" speed="13.89" length="489.60" shape="-4.80,500.00 -4.80,10.40"/>
        <lane id="2to0_1" index="1" speed="13.89" length="489.60" shape="-1.60,500.00 -1.60,10.40"/>
    </edge>
    <edge id="3to0" from="3" to="0" priority="-1">
        <lane id="3to0_0" index="0" speed="13.89" length="489.60" shape="500.00,4.80 10.40,4.80"/>
        <lane id="3to0_1" index="1" speed="13.89" length="489.60" shape="500.00,1.60 10.40,1.60"/>
    </edge>
    <edge id="4to0" from="4" to="0" priority="-1">
        <lane id="4to0_0" index="0" speed="13.89" length="489.60" shape="4.80,-500.00 4.80,-10.40"/>
        <lane id="4to0_1" index="1" speed="13.89" length="489.60" shape="1.60,-500.00 1.60,-10.40"/>
    </edge>

    <tlLogic id="0" type="static" programID="0" offset="0">
        <phase duration="42" state="GGGgrrrrGGGgrrrr"/>
        <phase duration="3"  state="yyyyrrrryyyyrrrr"/>
        <phase duration="42" state="rrrrGGGgrrrrGGGg"/>
        <phase duration="3"  state="rrrryyyyrrrryyyy"/>
    </tlLogic>

    <junction id="0" type="traffic_light" x="0.00" y="0.00" incLanes="2to0_0 2to0_1 3to0_0 3to0_1 4to0_0 4to0_1 1to0_0 1to0_1" intLanes=":0_0_0 :0_1_0 :0_1_1 :0_16_0 :0_4_0 :0_5_0 :0_5_1 :0_17_0 :0_8_0 :0_9_0 :0_9_1 :0_18_0 :0_12_0 :0_13_0 :0_13_1 :0_19_0" shape="-6.40,10.40 6.40,10.40 6.84,8.18 7.40,7.40 8.18,6.84 9.18,6.51 10.40,6.40 10.40,-6.40 8.18,-6.84 7.40,-7.40 6.84,-8.18 6.51,-9.18 6.40,-10.40 -6.40,-10.40 -6.84,-8.18 -7.40,-7.40 -8.18,-6.84 -9.18,-6.51 -10.40,-6.40 -10.40,6.40 -8.18,6.84 -7.40,7.40 -6.84,8.18 -6.51,9.18">
        <request index="0"  response="0000000000000000" foes="0000000001100000" cont="0"/>
        <request index="1"  response="1000000010000000" foes="1111100011100000" cont="0"/>
        <request index="2"  response="1000000010000000" foes="1111100011100000" cont="0"/>
        <request index="3"  response="1000011010000000" foes="1110011011100000" cont="1"/>
        <request index="4"  response="0000011000000000" foes="0000011000000000" cont="0"/>
        <request index="5"  response="0000111000001111" foes="1000111000001111" cont="0"/>
        <request index="6"  response="0000111000001111" foes="1000111000001111" cont="0"/>
        <request index="7"  response="0110111000001110" foes="0110111000001110" cont="1"/>
        <request index="8"  response="0000000000000000" foes="0110000000000000" cont="0"/>
        <request index="9"  response="1000000010000000" foes="1110000011111000" cont="0"/>
        <request index="10" response="1000000010000000" foes="1110000011111000" cont="0"/>
        <request index="11" response="1000000010000110" foes="1110000011100110" cont="1"/>
        <request index="12" response="0000000000000110" foes="0000000000000110" cont="0"/>
        <request index="13" response="0000111100001110" foes="0000111110001110" cont="0"/>
        <request index="14" response="0000111100001110" foes="0000111110001110" cont="0"/>
        <request index="15" response="0000111001101110" foes="0000111001101110" cont="1"/>
    </junction>
    <junction id="1" type="dead_end" x="-500.00" y="0.00" incLanes="0to1_0 0to1_1" intLanes="" shape="-500.00,0.00 -500.00,6.40 -500.00,0.00"/>
    <junction id="2" type="dead_end" x="0.00" y="500.00" incLanes="0to2_0 0to2_1" intLanes="" shape="0.00,500.00 6.40,500.00 0.00,500.00"/>
    <junction id="3" type="dead_end" x="500.00" y="0.00" incLanes="0to3_0 0to3_1" intLanes="" shape="500.00,0.00 500.00,-6.40 500.00,0.00"/>
    <junction id="4" type="dead_end" x="0.00" y="-500.00" incLanes="0to4_0 0to4_1" intLanes="" shape="0.00,-500.00 -6.40,-500.00 0.00,-500.00"/>

    <junction id=":0_16_0" type="internal" x="-0.89" y="5.44" incLanes=":0_3_0 4to0_0 4to0_1" intLanes=":0_5_0 :0_5_1 :0_7_0 :0_8_0 :0_9_0 :0_9_1 :0_13_0 :0_13_1 :0_15_0"/>
    <junction id=":0_17_0" type="internal" x="5.44" y="0.89" incLanes=":0_7_0 1to0_0 1to0_1" intLanes=":0_1_0 :0_1_1 :0_3_0 :0_9_0 :0_9_1 :0_11_0 :0_12_0 :0_13_0 :0_13_1"/>
    <junction id=":0_18_0" type="internal" x="0.89" y="-5.44" incLanes=":0_11_0 2to0_0 2to0_1" intLanes=":0_0_0 :0_1_0 :0_1_1 :0_5_0 :0_5_1 :0_7_0 :0_13_0 :0_13_1 :0_15_0"/>
    <junction id=":0_19_0" type="internal" x="-5.44" y="-0.89" incLanes=":0_15_0 3to0_0 3to0_1" intLanes=":0_1_0 :0_1_1 :0_3_0 :0_4_0 :0_5_0 :0_5_1 :0_9_0 :0_9_1 :0_11_0"/>

    <connection from="1to0" to="0to4" fromLane="0" toLane="0" via=":0_12_0" tl="0" linkIndex="12" dir="r" state="o"/>
    <connection from="1to0" to="0to3" fromLane="0" toLane="0" via=":0_13_0" tl="0" linkIndex="13" dir="s" state="o"/>
    <connection from="1to0" to="0to3" fromLane="1" toLane="1" via=":0_13_1" tl="0" linkIndex="14" dir="s" state="o"/>
    <connection from="1to0" to="0to2" fromLane="1" toLane="1" via=":0_15_0" tl="0" linkIndex="15" dir="l" state="o"/>
    <connection from="2to0" to="0to1" fromLane="0" toLane="0" via=":0_0_0" tl="0" linkIndex="0" dir="r" state="O"/>
    <connection from="2to0" to="0to4" fromLane="0" toLane="0" via=":0_1_0" tl="0" linkIndex="1" dir="s" state="O"/>
    <connection from="2to0" to="0to4" fromLane="1" toLane="1" via=":0_1_1" tl="0" linkIndex="2" dir="s" state="O"/>
    <connection from="2to0" to="0to3" fromLane="1" toLane="1" via=":0_3_0" tl="0" linkIndex="3" dir="l" state="o"/>
    <connection from="3to0" to="0to2" fromLane="0" toLane="0" via=":0_4_0" tl="0" linkIndex="4" dir="r" state="o"/>
    <connection from="3to0" to="0to1" fromLane="0" toLane="0" via=":0_5_0" tl="0" linkIndex="5" dir="s" state="o"/>
    <connection from="3to0" to="0to1" fromLane="1" toLane="1" via=":0_5_1" tl="0" linkIndex="6" dir="s" state="o"/>
    <connection from="3to0" to="0to4" fromLane="1" toLane="1" via=":0_7_0" tl="0" linkIndex="7" dir="l" state="o"/>
    <connection from="4to0" to="0to3" fromLane="0" toLane="0" via=":0_8_0" tl="0" linkIndex="8" dir="r" state="O"/>
    <connection from="4to0" to="0to2" fromLane="0" toLane="0" via=":0_9_0" tl="0" linkIndex="9" dir="s" state="O"/>
    <connection from="4to0" to="0to2" fromLane="1" toLane="1" via=":0_9_1" tl="0" linkIndex="10" dir="s" state="O"/>
    <connection from="4to0" to="0to1" fromLane="1" toLane="1" via=":0_11_0" tl="0" linkIndex="11" dir="l" state="o"/>

    <connection from=":0_0" to="0to1" fromLane="0" toLane="0" dir="r" state="M"/>
    <connection from=":0_1" to="0to4" fromLane="0" toLane="0" dir="s" state="M"/>
    <connection from=":0_1" to="0to4" fromLane="1" toLane="1" dir="s" state="M"/>
    <connection from=":0_3" to="0to3" fromLane="0" toLane="1" via=":0_16_0" dir="l" state="m"/>
    <connection from=":0_16" to="0to3" fromLane="0" toLane="1" dir="l" state="M"/>
    <connection from=":0_4" to="0to2" fromLane="0" toLane="0" dir="r" state="M"/>
    <connection from=":0_5" to="0to1" fromLane="0" toLane="0" dir="s" state="M"/>
    <connection from=":0_5" to="0to1" fromLane="1" toLane="1" dir="s" state="M"/>
    <connection from=":0_7" to="0to4" fromLane="0" toLane="1" via=":0_17_0" dir="l" state="m"/>
    <connection from=":0_17" to="0to4" fromLane="0" toLane="1" dir="l" state="M"/>
    <connection from=":0_8" to="0to3" fromLane="0" toLane="0" dir="r" state="M"/>
    <connection from=":0_9" to="0to2" fromLane="0" toLane="0" dir="s" state="M"/>
    <connection from=":0_9" to="0to2" fromLane="1" toLane="1" dir="s" state="M"/>
    <connection from=":0_11" to="0to1" fromLane="0" toLane="1" via=":0_18_0" dir="l" state="m"/>
    <connection from=":0_18" to="0to1" fromLane="0" toLane="1" dir="l" state="M"/>
    <connection from=":0_12" to="0to4" fromLane="0" toLane="0" dir="r" state="M"/>
    <connection from=":0_13" to="0to3" fromLane="0" toLane="0" dir="s" state="M"/>
    <connection from=":0_13" to="0to3" fromLane="1" toLane="1" dir="s" state="M"/>
    <connection from=":0_15" to="0to2" fromLane="0" toLane="1" via=":0_19_0" dir="l" state="m"/>
    <connection from=":0_19" to="0to2" fromLane="0" toLane="1" dir="l" state="M"/>

</net>
