<!-- number of vehicles:20 -->
<!-- generated on 2020-04-18 16:49:03.286463 by "cars.rou.xml -m 1 -r 1.4 -t 20" -->
<routes>
  <route id="0" edges="ne_to_nw nw_to_sw sw_to_se se_to_ne"/>
  <route id="1" edges="se_to_sw sw_to_nw nw_to_ne ne_to_se"/>
  <route id="2" edges="nw_to_sw sw_to_se se_to_ne ne_to_nw"/>
  <route id="3" edges="sw_to_nw nw_to_ne ne_to_se se_to_sw"/>
  <route id="4" edges="sw_to_se se_to_ne ne_to_nw nw_to_sw"/>
  <route id="5" edges="nw_to_ne ne_to_se se_to_sw sw_to_nw"/>

  <vType accel="4" decel="7.5" emergencyDecel="10" minGap="1.0" id="Car0" vClass="emergency"  maxSpeed="20.83"/>
  <vType accel="4" decel="7.5" emergencyDecel="10" minGap="1.0" id="Car1" maxSpeed="5.55"/>
  <vType accel="4" decel="7.5" emergencyDecel="7" minGap="1.0" id="Car2" maxSpeed="6.94"/>
  <vType accel="4" decel="7.5" emergencyDecel="10" minGap="1.0" id="Car3" maxSpeed="8.33"/>
  <vType accel="4" decel="7.5" emergencyDecel="10" minGap="1.0" id="Car4" maxSpeed="9.72"/>
  <vType accel="4" decel="7.5" emergencyDecel="10" minGap="1.0" id="Car5" maxSpeed="11.11"/>
  <vType accel="4" decel="7.5" emergencyDecel="10" minGap="1.0" id="Car6" maxSpeed="12.5"/>
  <vType accel="4" decel="7.5" emergencyDecel="10" minGap="1.0" id="Car7" maxSpeed="13.89"/>
  <vType accel="4" decel="7.5" emergencyDecel="10" minGap="1.0" id="Car8" maxSpeed="15.27"/>
  <vType accel="4" decel="7.5" emergencyDecel="10" minGap="1.0" id="Car9" maxSpeed="16.66"/>

      <vehicle id="veh1" type="Car2" depart="0.3" route="0">
    </vehicle>
      <vehicle id="veh2" type="Car0" depart="0.6" route="0">
    </vehicle>
      <vehicle id="veh3" type="Car2" depart="0.9" route="1">
    </vehicle>
      <vehicle id="veh4" type="Car0" depart="1.2" route="5">
    </vehicle>
      <vehicle id="veh5" type="Car5" depart="1.5" route="3">
    </vehicle>
      <vehicle id="veh6" type="Car3" depart="1.8" route="2">
    </vehicle>
      <vehicle id="veh7" type="Car5" depart="2.1" route="2">
    </vehicle>
      <vehicle id="veh8" type="Car9" depart="2.4" route="0">
    </vehicle>
      <vehicle id="veh9" type="Car2" depart="2.5" route="3">
    </vehicle>
      <vehicle id="veh10" type="Car2" depart="2.6" route="3">
    </vehicle>
      <vehicle id="veh11" type="Car4" depart="3.0" route="4">
    </vehicle>
      <vehicle id="veh12" type="Car2" depart="3.2" route="4">
    </vehicle>
      <vehicle id="veh13" type="Car8" depart="3.2" route="0">
    </vehicle>
      <vehicle id="veh14" type="Car5" depart="3.2" route="5">
    </vehicle>
      <vehicle id="veh15" type="Car7" depart="3.6" route="4">
    </vehicle>
     <vehicle id="veh16" type="Car9" depart="4.0" route="0">
    </vehicle>
      <vehicle id="veh17" type="Car5" depart="4.2" route="2">
    </vehicle>
      <vehicle id="veh18" type="Car7" depart="4.2" route="5">
    </vehicle>
      <vehicle id="veh19" type="Car2" depart="4.3" route="1">
    </vehicle>
      <vehicle id="veh20" type="Car2" depart="4.3" route="0">
    </vehicle>
      <vehicle id="veh21" type="Car2" depart="4.8" route="0">
    </vehicle>
      <vehicle id="veh22" type="Car0" depart="5.0" route="0">
    </vehicle>
      <vehicle id="veh23" type="Car2" depart="5.5" route="1">
    </vehicle>
      <vehicle id="veh24" type="Car0" depart="5.5" route="5">
    </vehicle>
      <vehicle id="veh25" type="Car5" depart="5.5" route="3">
    </vehicle>
      <vehicle id="veh26" type="Car3" depart="5.8" route="2">
    </vehicle>
      <vehicle id="veh27" type="Car5" depart="6.0" route="2">
    </vehicle>
      <vehicle id="veh28" type="Car9" depart="6.5" route="0">
    </vehicle>
      <vehicle id="veh29" type="Car2" depart="7.0" route="3">
    </vehicle>
      <vehicle id="veh30" type="Car2" depart="7.4" route="3">
    </vehicle>
      <vehicle id="veh31" type="Car4" depart="8.5" route="4">
    </vehicle>
      <vehicle id="veh32" type="Car2" depart="8.6" route="4">
    </vehicle>
      <vehicle id="veh33" type="Car8" depart="8.7" route="0">
    </vehicle>
      <vehicle id="veh34" type="Car5" depart="9.8" route="5">
    </vehicle>
      <vehicle id="veh35" type="Car7" depart="10.0" route="4">
    </vehicle>
     <vehicle id="veh36" type="Car9" depart="10.2" route="0">
    </vehicle>
      <vehicle id="veh37" type="Car5" depart="10.5" route="2">
    </vehicle>
      <vehicle id="veh38" type="Car7" depart="10.5" route="5">
    </vehicle>
      <vehicle id="veh39" type="Car2" depart="12.0" route="1">
    </vehicle>
      <vehicle id="veh40" type="Car2" depart="12.0" route="0">
    </vehicle>
</routes>
